
     RDKit          3D

 53 55  0  0  0  0  0  0  0  0999 V2000
    5.6386   -2.1070   -0.3148 C   0  0  0  0  0  0  0  0  0  0  0  0
    5.7879   -0.6844    0.1699 C   0  0  0  0  0  0  0  0  0  0  0  0
    6.5777    0.0711   -0.8976 C   0  0  0  0  0  0  0  0  0  0  0  0
    6.5969   -0.5964    1.4377 C   0  0  0  0  0  0  0  0  0  0  0  0
    4.4488   -0.0281    0.3354 C   0  0  0  0  0  0  0  0  0  0  0  0
    3.9060    0.6494   -0.7489 C   0  0  0  0  0  0  0  0  0  0  0  0
    2.6779    1.2602   -0.6257 C   0  0  0  0  0  0  0  0  0  0  0  0
    1.9910    1.1904    0.5922 C   0  0  0  0  0  0  0  0  0  0  0  0
    2.5428    0.5146    1.6587 C   0  0  0  0  0  0  0  0  0  0  0  0
    3.7804   -0.1076    1.5525 C   0  0  0  0  0  0  0  0  0  0  0  0
    0.7080    1.8563    0.6436 C   0  0  0  0  0  0  0  0  0  0  0  0
    0.6518    3.0896    0.9356 O   0  0  0  0  0  0  0  0  0  0  0  0
   -0.5299    1.2113    0.3824 N   0  0  0  0  0  0  0  0  0  0  0  0
   -1.7449    2.0112    0.4710 C   0  0  0  0  0  0  0  0  0  0  0  0
   -2.7213    1.4390   -0.5562 C   0  0  0  0  0  0  0  0  0  0  0  0
   -3.0965    0.1362   -0.0559 N   0  0  0  0  0  0  0  0  0  0  0  0
   -2.0229   -0.7209    0.4176 C   0  0  0  0  0  0  0  0  0  0  0  0
   -0.6646   -0.1789    0.0324 C   0  0  0  0  0  0  0  0  0  0  0  0
   -4.4295   -0.3478   -0.0027 C   0  0  0  0  0  0  0  0  0  0  0  0
   -4.6985   -1.5986    0.5441 C   0  0  0  0  0  0  0  0  0  0  0  0
   -5.9606   -2.1258    0.6262 C   0  0  0  0  0  0  0  0  0  0  0  0
   -7.0431   -1.3971    0.1484 C   0  0  0  0  0  0  0  0  0  0  0  0
   -6.8087   -0.1575   -0.3969 C   0  0  0  0  0  0  0  0  0  0  0  0
   -5.5159    0.3563   -0.4698 C   0  0  0  0  0  0  0  0  0  0  0  0
   -7.9515    0.6390   -0.9129 C   0  0  0  0  0  0  0  0  0  0  0  0
   -7.5157    1.6988   -1.6739 F   0  0  0  0  0  0  0  0  0  0  0  0
   -8.7225   -0.1638   -1.7434 F   0  0  0  0  0  0  0  0  0  0  0  0
   -8.6718    1.1098    0.1589 F   0  0  0  0  0  0  0  0  0  0  0  0
    5.0020   -2.7198    0.3375 H   0  0  0  0  0  0  0  0  0  0  0  0
    6.6491   -2.5519   -0.3239 H   0  0  0  0  0  0  0  0  0  0  0  0
    5.3024   -2.0822   -1.3713 H   0  0  0  0  0  0  0  0  0  0  0  0
    6.2272   -0.2206   -1.9128 H   0  0  0  0  0  0  0  0  0  0  0  0
    6.3427    1.1448   -0.7265 H   0  0  0  0  0  0  0  0  0  0  0  0
    7.6351   -0.1831   -0.7241 H   0  0  0  0  0  0  0  0  0  0  0  0
    7.6805   -0.6907    1.2160 H   0  0  0  0  0  0  0  0  0  0  0  0
    6.4570    0.4295    1.8436 H   0  0  0  0  0  0  0  0  0  0  0  0
    6.3370   -1.3964    2.1692 H   0  0  0  0  0  0  0  0  0  0  0  0
    4.4088    0.7209   -1.7003 H   0  0  0  0  0  0  0  0  0  0  0  0
    2.2556    1.7886   -1.4716 H   0  0  0  0  0  0  0  0  0  0  0  0
    1.9622    0.5005    2.5736 H   0  0  0  0  0  0  0  0  0  0  0  0
    4.2054   -0.6354    2.3967 H   0  0  0  0  0  0  0  0  0  0  0  0
   -2.2123    1.7864    1.4586 H   0  0  0  0  0  0  0  0  0  0  0  0
   -1.5841    3.0825    0.3415 H   0  0  0  0  0  0  0  0  0  0  0  0
   -2.2180    1.3470   -1.5534 H   0  0  0  0  0  0  0  0  0  0  0  0
   -3.5779    2.1269   -0.6102 H   0  0  0  0  0  0  0  0  0  0  0  0
   -2.1289   -1.7025   -0.0968 H   0  0  0  0  0  0  0  0  0  0  0  0
   -2.1207   -0.8096    1.5027 H   0  0  0  0  0  0  0  0  0  0  0  0
   -0.4390   -0.3896   -1.0442 H   0  0  0  0  0  0  0  0  0  0  0  0
    0.0932   -0.7525    0.6152 H   0  0  0  0  0  0  0  0  0  0  0  0
   -3.8900   -2.2106    0.9335 H   0  0  0  0  0  0  0  0  0  0  0  0
   -6.1562   -3.0983    1.0545 H   0  0  0  0  0  0  0  0  0  0  0  0
   -8.0371   -1.8348    0.2242 H   0  0  0  0  0  0  0  0  0  0  0  0
   -5.4040    1.3318   -0.9093 H   0  0  0  0  0  0  0  0  0  0  0  0
  1  2  1  0
  2  3  1  0
  2  4  1  0
  2  5  1  0
  5  6  2  0
  6  7  1  0
  7  8  2  0
  8  9  1  0
  9 10  2  0
  8 11  1  0
 11 12  2  0
 11 13  1  0
 13 14  1  0
 14 15  1  0
 15 16  1  0
 16 17  1  0
 17 18  1  0
 16 19  1  0
 19 20  2  0
 20 21  1  0
 21 22  2  0
 22 23  1  0
 23 24  2  0
 23 25  1  0
 25 26  1  0
 25 27  1  0
 25 28  1  0
 10  5  1  0
 18 13  1  0
 24 19  1  0
  1 29  1  0
  1 30  1  0
  1 31  1  0
  3 32  1  0
  3 33  1  0
  3 34  1  0
  4 35  1  0
  4 36  1  0
  4 37  1  0
  6 38  1  0
  7 39  1  0
  9 40  1  0
 10 41  1  0
 14 42  1  0
 14 43  1  0
 15 44  1  0
 15 45  1  0
 17 46  1  0
 17 47  1  0
 18 48  1  0
 18 49  1  0
 20 50  1  0
 21 51  1  0
 22 52  1  0
 24 53  1  0
M  END
$$$$

     RDKit          3D

 45 47  0  0  0  0  0  0  0  0999 V2000
    1.6216    2.3498   -5.7334 C   0  0  0  0  0  0  0  0  0  0  0  0
    1.4194    2.2464   -4.2477 C   0  0  0  0  0  0  0  0  0  0  0  0
    1.8126    1.1249   -3.5480 C   0  0  0  0  0  0  0  0  0  0  0  0
    1.6139    1.0569   -2.1785 C   0  0  0  0  0  0  0  0  0  0  0  0
    1.0204    2.1022   -1.4779 C   0  0  0  0  0  0  0  0  0  0  0  0
    0.6323    3.2200   -2.1953 C   0  0  0  0  0  0  0  0  0  0  0  0
    0.8253    3.3062   -3.5797 C   0  0  0  0  0  0  0  0  0  0  0  0
    0.8146    1.9334    0.2365 S   0  0  0  0  0  0  0  0  0  0  0  0
    1.9181    1.0261    0.7604 O   0  0  0  0  0  0  0  0  0  0  0  0
    0.9000    3.2836    0.9307 O   0  0  0  0  0  0  0  0  0  0  0  0
   -0.6683    1.2003    0.6949 N   0  0  0  0  0  0  0  0  0  0  0  0
   -1.7536    2.0086    0.2476 C   0  0  0  0  0  0  0  0  0  0  0  0
   -2.7094    1.3226   -0.7021 C   0  0  0  0  0  0  0  0  0  0  0  0
   -3.1042    0.0602   -0.1188 N   0  0  0  0  0  0  0  0  0  0  0  0
   -2.0370   -0.8073    0.3486 C   0  0  0  0  0  0  0  0  0  0  0  0
   -0.6844   -0.1620    0.2173 C   0  0  0  0  0  0  0  0  0  0  0  0
   -4.4487   -0.3743    0.0203 C   0  0  0  0  0  0  0  0  0  0  0  0
   -4.7204   -1.6077    0.6276 C   0  0  0  0  0  0  0  0  0  0  0  0
   -6.0070   -2.0745    0.7875 C   0  0  0  0  0  0  0  0  0  0  0  0
   -7.0956   -1.3438    0.3542 C   0  0  0  0  0  0  0  0  0  0  0  0
   -6.8495   -0.1185   -0.2507 C   0  0  0  0  0  0  0  0  0  0  0  0
   -5.5398    0.3339   -0.4022 C   0  0  0  0  0  0  0  0  0  0  0  0
   -8.0137    0.6900   -0.7270 C   0  0  0  0  0  0  0  0  0  0  0  0
   -8.1327    0.5801   -2.1026 F   0  0  0  0  0  0  0  0  0  0  0  0
   -9.1452    0.2700   -0.0644 F   0  0  0  0  0  0  0  0  0  0  0  0
   -7.7791    2.0489   -0.4749 F   0  0  0  0  0  0  0  0  0  0  0  0
    2.3794    3.1256   -5.9810 H   0  0  0  0  0  0  0  0  0  0  0  0
    0.6502    2.6383   -6.2119 H   0  0  0  0  0  0  0  0  0  0  0  0
    1.9809    1.3995   -6.1535 H   0  0  0  0  0  0  0  0  0  0  0  0
    2.2704    0.3303   -4.1205 H   0  0  0  0  0  0  0  0  0  0  0  0
    1.9459    0.1417   -1.6692 H   0  0  0  0  0  0  0  0  0  0  0  0
    0.1728    4.0397   -1.6747 H   0  0  0  0  0  0  0  0  0  0  0  0
    0.5012    4.2060   -4.0876 H   0  0  0  0  0  0  0  0  0  0  0  0
   -2.3686    2.3366    1.1401 H   0  0  0  0  0  0  0  0  0  0  0  0
   -1.3817    2.9043   -0.2532 H   0  0  0  0  0  0  0  0  0  0  0  0
   -2.2738    1.1932   -1.7127 H   0  0  0  0  0  0  0  0  0  0  0  0
   -3.5611    2.0197   -0.8226 H   0  0  0  0  0  0  0  0  0  0  0  0
   -2.2641   -1.1389    1.3690 H   0  0  0  0  0  0  0  0  0  0  0  0
   -2.0470   -1.7032   -0.3045 H   0  0  0  0  0  0  0  0  0  0  0  0
    0.0391   -0.7766    0.7871 H   0  0  0  0  0  0  0  0  0  0  0  0
   -0.3593   -0.1567   -0.8391 H   0  0  0  0  0  0  0  0  0  0  0  0
   -3.9296   -2.2487    0.9973 H   0  0  0  0  0  0  0  0  0  0  0  0
   -6.2284   -3.0243    1.2548 H   0  0  0  0  0  0  0  0  0  0  0  0
   -8.1177   -1.6747    0.4610 H   0  0  0  0  0  0  0  0  0  0  0  0
   -5.4271    1.2862   -0.8790 H   0  0  0  0  0  0  0  0  0  0  0  0
  1  2  1  0
  2  3  2  0
  3  4  1  0
  4  5  2  0
  5  6  1  0
  6  7  2  0
  5  8  1  0
  8  9  2  0
  8 10  2  0
  8 11  1  0
 11 12  1  0
 12 13  1  0
 13 14  1  0
 14 15  1  0
 15 16  1  0
 14 17  1  0
 17 18  2  0
 18 19  1  0
 19 20  2  0
 20 21  1  0
 21 22  2  0
 21 23  1  0
 23 24  1  0
 23 25  1  0
 23 26  1  0
  7  2  1  0
 16 11  1  0
 22 17  1  0
  1 27  1  0
  1 28  1  0
  1 29  1  0
  3 30  1  0
  4 31  1  0
  6 32  1  0
  7 33  1  0
 12 34  1  0
 12 35  1  0
 13 36  1  0
 13 37  1  0
 15 38  1  0
 15 39  1  0
 16 40  1  0
 16 41  1  0
 18 42  1  0
 19 43  1  0
 20 44  1  0
 22 45  1  0
M  END
$$$$

     RDKit          3D

 41 43  0  0  0  0  0  0  0  0999 V2000
    4.0514    0.5488    2.7517 C   0  0  0  0  0  0  0  0  0  0  0  0
    3.2170   -0.3882    2.2017 C   0  0  0  0  0  0  0  0  0  0  0  0
    2.0629   -0.0022    1.5155 C   0  0  0  0  0  0  0  0  0  0  0  0
    1.6947    1.3121    1.3468 C   0  0  0  0  0  0  0  0  0  0  0  0
    2.5774    2.2449    1.9255 C   0  0  0  0  0  0  0  0  0  0  0  0
    3.7094    1.8716    2.6010 C   0  0  0  0  0  0  0  0  0  0  0  0
    0.5309    1.7887    0.6563 C   0  0  0  0  0  0  0  0  0  0  0  0
    0.3734    3.0959    0.7122 O   0  0  0  0  0  0  0  0  0  0  0  0
   -0.4641    1.1628   -0.0535 N   0  0  0  0  0  0  0  0  0  0  0  0
   -1.5326    2.0679   -0.5967 C   0  0  0  0  0  0  0  0  0  0  0  0
   -2.8349    1.6839    0.1364 C   0  0  0  0  0  0  0  0  0  0  0  0
   -2.9432    0.2504    0.3316 N   0  0  0  0  0  0  0  0  0  0  0  0
   -1.8009   -0.5964    0.6607 C   0  0  0  0  0  0  0  0  0  0  0  0
   -0.7267   -0.2138   -0.3706 C   0  0  0  0  0  0  0  0  0  0  0  0
   -4.2304   -0.3361    0.2060 C   0  0  0  0  0  0  0  0  0  0  0  0
   -5.3642    0.4540    0.2419 C   0  0  0  0  0  0  0  0  0  0  0  0
   -6.6380   -0.1110    0.1142 C   0  0  0  0  0  0  0  0  0  0  0  0
   -6.8188   -1.4757   -0.0527 C   0  0  0  0  0  0  0  0  0  0  0  0
   -5.6887   -2.2598   -0.0869 C   0  0  0  0  0  0  0  0  0  0  0  0
   -4.4218   -1.6856    0.0415 C   0  0  0  0  0  0  0  0  0  0  0  0
   -8.1398   -2.1144   -0.1969 C   0  0  0  0  0  0  0  0  0  0  0  0
   -8.9657   -1.2762   -0.8938 F   0  0  0  0  0  0  0  0  0  0  0  0
   -8.6759   -2.4665    1.0439 F   0  0  0  0  0  0  0  0  0  0  0  0
   -7.9548   -3.2964   -0.9275 F   0  0  0  0  0  0  0  0  0  0  0  0
    4.9315    0.2033    3.2657 H   0  0  0  0  0  0  0  0  0  0  0  0
    3.4742   -1.4319    2.3097 H   0  0  0  0  0  0  0  0  0  0  0  0
    1.4674   -0.7786    1.1435 H   0  0  0  0  0  0  0  0  0  0  0  0
    2.3915    3.3154    1.8619 H   0  0  0  0  0  0  0  0  0  0  0  0
    4.3770    2.5978    3.0473 H   0  0  0  0  0  0  0  0  0  0  0  0
   -1.2508    3.0853   -0.3833 H   0  0  0  0  0  0  0  0  0  0  0  0
   -1.7163    1.7921   -1.6471 H   0  0  0  0  0  0  0  0  0  0  0  0
   -3.6363    2.1380   -0.4358 H   0  0  0  0  0  0  0  0  0  0  0  0
   -2.8207    2.1492    1.1551 H   0  0  0  0  0  0  0  0  0  0  0  0
   -1.9869   -1.6406    0.7565 H   0  0  0  0  0  0  0  0  0  0  0  0
   -1.4100   -0.2551    1.6691 H   0  0  0  0  0  0  0  0  0  0  0  0
   -1.3190   -0.2454   -1.3457 H   0  0  0  0  0  0  0  0  0  0  0  0
    0.0801   -0.9017   -0.4779 H   0  0  0  0  0  0  0  0  0  0  0  0
   -5.3540    1.5232    0.3722 H   0  0  0  0  0  0  0  0  0  0  0  0
   -7.5370    0.4833    0.1427 H   0  0  0  0  0  0  0  0  0  0  0  0
   -5.8227   -3.3311   -0.2193 H   0  0  0  0  0  0  0  0  0  0  0  0
   -3.6029   -2.4072   -0.0037 H   0  0  0  0  0  0  0  0  0  0  0  0
  1  2  2  0
  2  3  1  0
  3  4  2  0
  4  5  1  0
  5  6  2  0
  4  7  1  0
  7  8  2  0
  7  9  1  0
  9 10  1  0
 10 11  1  0
 11 12  1  0
 12 13  1  0
 13 14  1  0
 12 15  1  0
 15 16  2  0
 16 17  1  0
 17 18  2  0
 18 19  1  0
 19 20  2  0
 18 21  1  0
 21 22  1  0
 21 23  1  0
 21 24  1  0
  6  1  1  0
 14  9  1  0
 20 15  1  0
  1 25  1  0
  2 26  1  0
  3 27  1  0
  5 28  1  0
  6 29  1  0
 10 30  1  0
 10 31  1  0
 11 32  1  0
 11 33  1  0
 13 34  1  0
 13 35  1  0
 14 36  1  0
 14 37  1  0
 16 38  1  0
 17 39  1  0
 19 40  1  0
 20 41  1  0
M  END
$$$$

     RDKit          3D

 41 43  0  0  0  0  0  0  0  0999 V2000
    5.5142   -0.9583    0.0529 C   0  0  0  0  0  0  0  0  0  0  0  0
    4.2438   -0.2007    0.2447 C   0  0  0  0  0  0  0  0  0  0  0  0
    3.8166    0.1534    1.5210 C   0  0  0  0  0  0  0  0  0  0  0  0
    2.6346    0.8535    1.6311 C   0  0  0  0  0  0  0  0  0  0  0  0
    1.8746    1.2084    0.5281 C   0  0  0  0  0  0  0  0  0  0  0  0
    2.3074    0.8518   -0.7401 C   0  0  0  0  0  0  0  0  0  0  0  0
    3.4970    0.1452   -0.8726 C   0  0  0  0  0  0  0  0  0  0  0  0
    0.6303    1.9437    0.6179 C   0  0  0  0  0  0  0  0  0  0  0  0
    0.6210    3.1941    0.5067 O   0  0  0  0  0  0  0  0  0  0  0  0
   -0.6194    1.2991    0.8326 N   0  0  0  0  0  0  0  0  0  0  0  0
   -1.8219    2.1012    0.9124 C   0  0  0  0  0  0  0  0  0  0  0  0
   -2.7265    1.6336   -0.2370 C   0  0  0  0  0  0  0  0  0  0  0  0
   -2.9379    0.1809   -0.1244 N   0  0  0  0  0  0  0  0  0  0  0  0
   -1.7271   -0.6101   -0.0667 C   0  0  0  0  0  0  0  0  0  0  0  0
   -0.7529   -0.1382    0.9779 C   0  0  0  0  0  0  0  0  0  0  0  0
   -4.2466   -0.3856   -0.0923 C   0  0  0  0  0  0  0  0  0  0  0  0
   -4.4800   -1.6926    0.3171 C   0  0  0  0  0  0  0  0  0  0  0  0
   -5.7678   -2.2374    0.3307 C   0  0  0  0  0  0  0  0  0  0  0  0
   -6.8448   -1.4976   -0.0601 C   0  0  0  0  0  0  0  0  0  0  0  0
   -6.6432   -0.2131   -0.4661 C   0  0  0  0  0  0  0  0  0  0  0  0
   -5.3544    0.3349   -0.4808 C   0  0  0  0  0  0  0  0  0  0  0  0
   -8.4664   -2.1619   -0.0511 Cl  0  0  0  0  0  0  0  0  0  0  0  0
    6.1198   -0.8486    0.9924 H   0  0  0  0  0  0  0  0  0  0  0  0
    5.2689   -2.0270   -0.0377 H   0  0  0  0  0  0  0  0  0  0  0  0
    6.0549   -0.5758   -0.8260 H   0  0  0  0  0  0  0  0  0  0  0  0
    4.3983   -0.1160    2.3877 H   0  0  0  0  0  0  0  0  0  0  0  0
    2.2794    1.1413    2.6137 H   0  0  0  0  0  0  0  0  0  0  0  0
    1.7390    1.1120   -1.6280 H   0  0  0  0  0  0  0  0  0  0  0  0
    3.8129   -0.1207   -1.8762 H   0  0  0  0  0  0  0  0  0  0  0  0
   -1.6119    3.1753    0.7323 H   0  0  0  0  0  0  0  0  0  0  0  0
   -2.3554    1.9028    1.8616 H   0  0  0  0  0  0  0  0  0  0  0  0
   -3.6638    2.1880   -0.1141 H   0  0  0  0  0  0  0  0  0  0  0  0
   -2.1818    1.8921   -1.1595 H   0  0  0  0  0  0  0  0  0  0  0  0
   -1.9283   -1.6720    0.0748 H   0  0  0  0  0  0  0  0  0  0  0  0
   -1.1670   -0.5507   -1.0481 H   0  0  0  0  0  0  0  0  0  0  0  0
    0.2078   -0.6635    0.8289 H   0  0  0  0  0  0  0  0  0  0  0  0
   -1.2098   -0.3278    1.9767 H   0  0  0  0  0  0  0  0  0  0  0  0
   -3.7010   -2.3349    0.6416 H   0  0  0  0  0  0  0  0  0  0  0  0
   -5.9428   -3.2576    0.6504 H   0  0  0  0  0  0  0  0  0  0  0  0
   -7.5020    0.3710   -0.7756 H   0  0  0  0  0  0  0  0  0  0  0  0
   -5.3032    1.3533   -0.8223 H   0  0  0  0  0  0  0  0  0  0  0  0
  1  2  1  0
  2  3  2  0
  3  4  1  0
  4  5  2  0
  5  6  1  0
  6  7  2  0
  5  8  1  0
  8  9  2  0
  8 10  1  0
 10 11  1  0
 11 12  1  0
 12 13  1  0
 13 14  1  0
 14 15  1  0
 13 16  1  0
 16 17  2  0
 17 18  1  0
 18 19  2  0
 19 20  1  0
 20 21  2  0
 19 22  1  0
  7  2  1  0
 15 10  1  0
 21 16  1  0
  1 23  1  0
  1 24  1  0
  1 25  1  0
  3 26  1  0
  4 27  1  0
  6 28  1  0
  7 29  1  0
 11 30  1  0
 11 31  1  0
 12 32  1  0
 12 33  1  0
 14 34  1  0
 14 35  1  0
 15 36  1  0
 15 37  1  0
 17 38  1  0
 18 39  1  0
 20 40  1  0
 21 41  1  0
M  END
$$$$

     RDKit          3D

 47 49  0  0  0  0  0  0  0  0999 V2000
    5.9933   -1.5924   -0.6901 C   0  0  0  0  0  0  0  0  0  0  0  0
    5.7912   -0.6941    0.4916 C   0  0  0  0  0  0  0  0  0  0  0  0
    6.8209    0.4336    0.3898 C   0  0  0  0  0  0  0  0  0  0  0  0
    4.4551   -0.0646    0.5024 C   0  0  0  0  0  0  0  0  0  0  0  0
    4.0578    0.6690   -0.5885 C   0  0  0  0  0  0  0  0  0  0  0  0
    2.8268    1.2603   -0.5993 C   0  0  0  0  0  0  0  0  0  0  0  0
    1.9551    1.1438    0.4652 C   0  0  0  0  0  0  0  0  0  0  0  0
    2.3280    0.4141    1.5722 C   0  0  0  0  0  0  0  0  0  0  0  0
    3.5775   -0.1725    1.5556 C   0  0  0  0  0  0  0  0  0  0  0  0
    0.6691    1.8159    0.3371 C   0  0  0  0  0  0  0  0  0  0  0  0
    0.6441    3.0467    0.0870 O   0  0  0  0  0  0  0  0  0  0  0  0
   -0.5813    1.1564    0.4789 N   0  0  0  0  0  0  0  0  0  0  0  0
   -1.7695    2.0077    0.3089 C   0  0  0  0  0  0  0  0  0  0  0  0
   -2.8179    1.3796    1.2304 C   0  0  0  0  0  0  0  0  0  0  0  0
   -3.1496    0.0918    0.6608 N   0  0  0  0  0  0  0  0  0  0  0  0
   -2.0465   -0.8191    0.4126 C   0  0  0  0  0  0  0  0  0  0  0  0
   -0.7110   -0.2538    0.7715 C   0  0  0  0  0  0  0  0  0  0  0  0
   -4.4525   -0.3332    0.3315 C   0  0  0  0  0  0  0  0  0  0  0  0
   -4.6763   -1.6392   -0.1259 C   0  0  0  0  0  0  0  0  0  0  0  0
   -5.9315   -2.0921   -0.4609 C   0  0  0  0  0  0  0  0  0  0  0  0
   -7.0399   -1.2687   -0.3601 C   0  0  0  0  0  0  0  0  0  0  0  0
   -6.8403    0.0196    0.0877 C   0  0  0  0  0  0  0  0  0  0  0  0
   -5.5713    0.4698    0.4242 C   0  0  0  0  0  0  0  0  0  0  0  0
   -8.2183    1.1226    0.2367 Cl  0  0  0  0  0  0  0  0  0  0  0  0
    7.0044   -2.0416   -0.6195 H   0  0  0  0  0  0  0  0  0  0  0  0
    5.2013   -2.3790   -0.7362 H   0  0  0  0  0  0  0  0  0  0  0  0
    5.9998   -1.0041   -1.6502 H   0  0  0  0  0  0  0  0  0  0  0  0
    5.9783   -1.2833    1.4169 H   0  0  0  0  0  0  0  0  0  0  0  0
    6.5949    0.9996   -0.5293 H   0  0  0  0  0  0  0  0  0  0  0  0
    6.6816    1.0613    1.3067 H   0  0  0  0  0  0  0  0  0  0  0  0
    7.8657    0.0316    0.3995 H   0  0  0  0  0  0  0  0  0  0  0  0
    4.6997    0.8029   -1.4666 H   0  0  0  0  0  0  0  0  0  0  0  0
    2.5344    1.8410   -1.4827 H   0  0  0  0  0  0  0  0  0  0  0  0
    1.6549    0.3205    2.4069 H   0  0  0  0  0  0  0  0  0  0  0  0
    3.9277   -0.7657    2.4079 H   0  0  0  0  0  0  0  0  0  0  0  0
   -1.5580    3.0505    0.5806 H   0  0  0  0  0  0  0  0  0  0  0  0
   -2.1142    1.9482   -0.7291 H   0  0  0  0  0  0  0  0  0  0  0  0
   -3.6474    2.0766    1.3179 H   0  0  0  0  0  0  0  0  0  0  0  0
   -2.3544    1.2601    2.2326 H   0  0  0  0  0  0  0  0  0  0  0  0
   -2.0818   -1.0721   -0.6732 H   0  0  0  0  0  0  0  0  0  0  0  0
   -2.1797   -1.7746    0.9605 H   0  0  0  0  0  0  0  0  0  0  0  0
    0.0886   -0.7610    0.1623 H   0  0  0  0  0  0  0  0  0  0  0  0
   -0.5167   -0.4902    1.8436 H   0  0  0  0  0  0  0  0  0  0  0  0
   -3.8483   -2.3472   -0.2309 H   0  0  0  0  0  0  0  0  0  0  0  0
   -6.0779   -3.1226   -0.8159 H   0  0  0  0  0  0  0  0  0  0  0  0
   -8.0397   -1.5898   -0.6142 H   0  0  0  0  0  0  0  0  0  0  0  0
   -5.4953    1.4786    0.7620 H   0  0  0  0  0  0  0  0  0  0  0  0
  1  2  1  0
  2  3  1  0
  2  4  1  0
  4  5  2  0
  5  6  1  0
  6  7  2  0
  7  8  1  0
  8  9  2  0
  7 10  1  0
 10 11  2  0
 10 12  1  0
 12 13  1  0
 13 14  1  0
 14 15  1  0
 15 16  1  0
 16 17  1  0
 15 18  1  0
 18 19  2  0
 19 20  1  0
 20 21  2  0
 21 22  1  0
 22 23  2  0
 22 24  1  0
  9  4  1  0
 17 12  1  0
 23 18  1  0
  1 25  1  0
  1 26  1  0
  1 27  1  0
  2 28  1  0
  3 29  1  0
  3 30  1  0
  3 31  1  0
  5 32  1  0
  6 33  1  0
  8 34  1  0
  9 35  1  0
 13 36  1  0
 13 37  1  0
 14 38  1  0
 14 39  1  0
 16 40  1  0
 16 41  1  0
 17 42  1  0
 17 43  1  0
 19 44  1  0
 20 45  1  0
 21 46  1  0
 23 47  1  0
M  END
$$$$
